
     RDKit          3D

 14 14  0  0  0  0  0  0  0  0999 V2000
    0.7008    2.6415    2.6703 O   0  0  0  0  0  0  0  0  0  0  0  0
    0.6466    1.4796    2.4952 C   0  0  0  0  0  0  0  0  0  0  0  0
    0.5994    0.3181    2.3268 N   0  0  0  0  0  0  0  0  0  0  0  0
   -0.3676   -0.0294    1.3696 C   0  0  0  0  0  0  0  0  0  0  0  0
   -1.6790   -0.3319    1.7602 C   0  0  0  0  0  0  0  0  0  0  0  0
   -2.6338   -0.7062    0.8123 C   0  0  0  0  0  0  0  0  0  0  0  0
   -2.2814   -0.7964   -0.5333 C   0  0  0  0  0  0  0  0  0  0  0  0
   -0.9743   -0.5210   -0.9315 C   0  0  0  0  0  0  0  0  0  0  0  0
   -0.0201   -0.1467    0.0171 C   0  0  0  0  0  0  0  0  0  0  0  0
   -1.9596   -0.2788    2.8093 H   0  0  0  0  0  0  0  0  0  0  0  0
   -3.6501   -0.9328    1.1250 H   0  0  0  0  0  0  0  0  0  0  0  0
   -3.0241   -1.0901   -1.2714 H   0  0  0  0  0  0  0  0  0  0  0  0
   -0.6958   -0.6030   -1.9791 H   0  0  0  0  0  0  0  0  0  0  0  0
    1.0006    0.0517   -0.3010 H   0  0  0  0  0  0  0  0  0  0  0  0
  1  2  2  0
  2  3  2  0
  3  4  1  0
  4  5  2  0
  5  6  1  0
  6  7  2  0
  7  8  1  0
  8  9  2  0
  9  4  1  0
  5 10  1  0
  6 11  1  0
  7 12  1  0
  8 13  1  0
  9 14  1  0
M  END
$$$$
