
     RDKit          3D

 13 12  0  0  0  0  0  0  0  0999 V2000
   -0.5705   -2.3707    1.6321 C   0  0  0  0  0  0  0  0  0  0  0  0
   -0.7591   -0.9633    1.7808 O   0  0  0  0  0  0  0  0  0  0  0  0
   -0.8880   -0.3009    0.6053 C   0  0  0  0  0  0  0  0  0  0  0  0
   -0.8562   -0.8122   -0.5032 O   0  0  0  0  0  0  0  0  0  0  0  0
   -1.0634    1.0236    0.8613 N   0  0  0  0  0  0  0  0  0  0  0  0
   -1.2512    1.9962   -0.1787 C   0  0  0  0  0  0  0  0  0  0  0  0
    0.3494   -2.5786    1.0764 H   0  0  0  0  0  0  0  0  0  0  0  0
   -1.4349   -2.8240    1.1367 H   0  0  0  0  0  0  0  0  0  0  0  0
   -0.4766   -2.8070    2.6305 H   0  0  0  0  0  0  0  0  0  0  0  0
   -1.0957    1.2910    1.8347 H   0  0  0  0  0  0  0  0  0  0  0  0
   -0.6615    1.7339   -1.0611 H   0  0  0  0  0  0  0  0  0  0  0  0
   -0.9431    2.9739    0.1988 H   0  0  0  0  0  0  0  0  0  0  0  0
   -2.3114    2.0216   -0.4434 H   0  0  0  0  0  0  0  0  0  0  0  0
  1  2  1  0
  2  3  1  0
  3  4  2  0
  3  5  1  0
  5  6  1  0
  1  7  1  0
  1  8  1  0
  1  9  1  0
  5 10  1  0
  6 11  1  0
  6 12  1  0
  6 13  1  0
M  END
$$$$
