
     RDKit          3D

 20 20  0  0  0  0  0  0  0  0999 V2000
   -1.4608    3.5332   -1.2423 C   0  0  0  0  0  0  0  0  0  0  0  0
   -1.7843    2.3265   -0.5495 O   0  0  0  0  0  0  0  0  0  0  0  0
   -0.7221    1.4974   -0.3530 C   0  0  0  0  0  0  0  0  0  0  0  0
    0.4131    1.7454   -0.7280 O   0  0  0  0  0  0  0  0  0  0  0  0
   -1.1709    0.3937    0.3138 N   0  0  0  0  0  0  0  0  0  0  0  0
   -0.4428   -0.7310    0.7354 C   0  0  0  0  0  0  0  0  0  0  0  0
   -1.1489   -1.7368    1.4078 C   0  0  0  0  0  0  0  0  0  0  0  0
   -0.4954   -2.8867    1.8586 C   0  0  0  0  0  0  0  0  0  0  0  0
    0.8709   -3.0408    1.6408 C   0  0  0  0  0  0  0  0  0  0  0  0
    1.5810   -2.0457    0.9731 C   0  0  0  0  0  0  0  0  0  0  0  0
    0.9271   -0.8946    0.5218 C   0  0  0  0  0  0  0  0  0  0  0  0
   -2.3778    4.1200   -1.3454 H   0  0  0  0  0  0  0  0  0  0  0  0
   -1.0786    3.3106   -2.2435 H   0  0  0  0  0  0  0  0  0  0  0  0
   -0.7364    4.1218   -0.6706 H   0  0  0  0  0  0  0  0  0  0  0  0
   -2.1601    0.4218    0.5145 H   0  0  0  0  0  0  0  0  0  0  0  0
   -2.2159   -1.6403    1.5901 H   0  0  0  0  0  0  0  0  0  0  0  0
   -1.0534   -3.6606    2.3791 H   0  0  0  0  0  0  0  0  0  0  0  0
    1.3828   -3.9338    1.9900 H   0  0  0  0  0  0  0  0  0  0  0  0
    2.6482   -2.1610    0.8004 H   0  0  0  0  0  0  0  0  0  0  0  0
    1.5181   -0.1441    0.0061 H   0  0  0  0  0  0  0  0  0  0  0  0
  1  2  1  0
  2  3  1  0
  3  4  2  0
  3  5  1  0
  5  6  1  0
  6  7  2  0
  7  8  1  0
  8  9  2  0
  9 10  1  0
 10 11  2  0
 11  6  1  0
  1 12  1  0
  1 13  1  0
  1 14  1  0
  5 15  1  0
  7 16  1  0
  8 17  1  0
  9 18  1  0
 10 19  1  0
 11 20  1  0
M  END
$$$$
