
     RDKit          3D

 10  9  0  0  0  0  0  0  0  0999 V2000
   -1.6516   -1.7687    0.8614 C   0  0  0  0  0  0  0  0  0  0  0  0
   -1.1599   -0.3573    1.1345 C   0  0  0  0  0  0  0  0  0  0  0  0
   -0.3570   -0.3749    2.3621 N   0  0  0  0  0  0  0  0  0  0  0  0
    0.0709    0.6763    2.6594 C   0  0  0  0  0  0  0  0  0  0  0  0
    0.4939    1.7343    2.9469 O   0  0  0  0  0  0  0  0  0  0  0  0
   -2.2642   -2.1366    1.6912 H   0  0  0  0  0  0  0  0  0  0  0  0
   -0.8102   -2.4583    0.7358 H   0  0  0  0  0  0  0  0  0  0  0  0
   -2.2562   -1.7938   -0.0503 H   0  0  0  0  0  0  0  0  0  0  0  0
   -2.0246    0.3104    1.2417 H   0  0  0  0  0  0  0  0  0  0  0  0
   -0.5620   -0.0132    0.2805 H   0  0  0  0  0  0  0  0  0  0  0  0
  1  2  1  0
  2  3  1  0
  3  4  2  0
  4  5  2  0
  1  6  1  0
  1  7  1  0
  1  8  1  0
  2  9  1  0
  2 10  1  0
M  END
$$$$
